*MODEL INPUT FILE            B     9     1     9   999     0
*FILES              
MODEL          RICER045
FILEX          IRPI8001.RIX C:\DSSAT45\rice\                                                                
FILEA          IRPI8001.RIA C:\DSSAT45\rice\                                                                
FILET          IRPI8001.RIT C:\DSSAT45\rice\                                                                
SPECIES        RICER045.SPE C:\DSSAT45\GENOTYPE\                                                            
ECOTYPE        RICER045.ECO C:\DSSAT45\GENOTYPE\                                                            
CULTIVAR       RICER045.CUL C:\DSSAT45\GENOTYPE\                                                            
PESTS          RICER045.PST C:\DSSAT45\PEST\                                                                
SOILS          SOIL.SOL     C:\DSSAT45\SOIL\                                                                
WEATHER        0-40.WTH
OUTPUT        Output
*SIMULATION CONTROL
                   1     1     S 1990152  2150 N X IRRIGATION, GA_TIFTON MZCER
                   Y     Y     N     N     N     N     N     N     M
                   M     M     E     R     S     C     R     1     G     S     2
                   R     R     R     R     M
                   N     Y     Y     1     Y     N     Y     Y     N     N     Y     N     N
!AUTOMATIC MANAGEM  
               1990152 1990212   40.  100.   30.   40.   10.
                 30.   50.  100. IB001 IB001  10.0 0.900
                 30.   50.   25. IB001 IB001
                100.     1   20.
                     0 1990057  100.    0.
*EXP.DETAILS        
  1IRPI8001 RI IRRI, LOS BANOS, IRRIG. & N STUDY, 1980                     
*TREATMENTS         
  9 1 0 0 IR36, 120 kg N/ha, W3 irr
*CULTIVARS          
   RI IB0003 IR 36           
*FIELDS
   GATI0002 GATI9001   0.0    0. DR000    0.  100. 00000        136. Clay
          29.63000       -82.37000     40.00               1.0  100.   1.0   0.0
*INITIAL CONDITIONS
   SG    1990152  100.    0.  1.00  1.00   0.0  1000  0.80  0.00  100.   15.
     5   -99 0.042 0.169 0.392 1.000   -99  0.00  0.00   -99   -99   -99   -99   -99   -99   -99   -99 
    15   -99 0.042 0.169 0.392 1.000   -99  0.00  0.00   -99   -99   -99   -99   -99   -99   -99   -99 
    25   -99 0.042 0.169 0.392 0.779   -99  0.00  0.00   -99   -99   -99   -99   -99   -99   -99   -99 
    33   -99 0.044 0.177 0.358 0.349   -99  0.00  0.00   -99   -99   -99   -99   -99   -99   -99   -99 
    46   -99 0.056 0.165 0.396 0.209   -99  0.00  0.00   -99   -99   -99   -99   -99   -99   -99   -99 
    61   -99 0.150 0.291 0.377 0.070   -99  0.00  0.00   -99   -99   -99   -99   -99   -99   -99   -99 
    76   -99 0.150 0.291 0.377 0.070   -99  0.00  0.00   -99   -99   -99   -99   -99   -99   -99   -99 
   106   -99 0.150 0.291 0.377 0.017   -99  0.00  0.00   -99   -99   -99   -99   -99   -99   -99   -99 
   136   -99 0.150 0.291 0.377 0.000   -99  0.00  0.00   -99   -99   -99   -99   -99   -99   -99   -99 

    135. 0.238 0.500 0.500
*PLANTING DETAILS
   1990152     -99   7.2   7.2     S     R   61.    0.   7.0  -99.  -99. -99.0 -99.0   0.0
*IRRIGATION
   0.900   30.   75.  -99. GS000 IR001   0.0
   1990063 IR001  13.0
   1980012 IR001  21.0
   1980016 IR001  21.0
   1980022 IR001  20.0
   1980029 IR001  22.0
   1980033 IR001  22.0
   1980040 IR001  25.0
   1980044 IR001  11.0
   1980047 IR001   9.0
   1980051 IR001  22.0
   1980054 IR001  18.0
   1980057 IR001  22.0
   1980059 IR001   7.0
   1980062 IR001  13.0
   1980065 IR001  14.0
   1980067 IR001   9.0
   1980069 IR001   8.0
   1980071 IR001   7.0
   1980073 IR001  12.0
   1980075 IR001  10.0
   1980078 IR001  22.0
   1980080 IR001  12.0
   1980083 IR001  15.0
   1980092 IR001  18.0
   1980096 IR001  17.0
   1980101 IR001  19.0
   1980103 IR001  12.0
   1980105 IR001  11.0
   1980107 IR001   9.0
   1980110 IR001  15.0
   1980113 IR001   4.0
   1980114 IR001  11.0
   1980117 IR001  16.0
   1980123 IR001  12.0
*FERTILIZERS        
   1980008 FE005 AP001   10.  120.  -99.  -99.  -99.  -99.   -99
*RESIDUES           
   1980001 RE001   500  0.50  0.00  0.00  100.   15.   -99
*CHEMICALS          
*TILLAGE            
*ENVIRONMENT        
*HARVEST            
*SOIL
 GAPN930001  GA_tifton  XXXXX  136.  Clay
 -99         USA               -99    -99  Fine loamy,silic.,therm. Typic Paleudults
   -99  0.14   3.0  0.23  60.0  1.00  0.95 IB001 IB001 IB001
     5   -99 0.042 0.169 0.392 1.000   -99  0.00  0.00   -99   -99   -99   -99   -99   -99   -99   -99 
    15   -99 0.042 0.169 0.392 1.000   -99  0.00  0.00   -99   -99   -99   -99   -99   -99   -99   -99 
    25   -99 0.042 0.169 0.392 0.779   -99  0.00  0.00   -99   -99   -99   -99   -99   -99   -99   -99 
    33   -99 0.044 0.177 0.358 0.349   -99  0.00  0.00   -99   -99   -99   -99   -99   -99   -99   -99 
    46   -99 0.056 0.165 0.396 0.209   -99  0.00  0.00   -99   -99   -99   -99   -99   -99   -99   -99 
    61   -99 0.150 0.291 0.377 0.070   -99  0.00  0.00   -99   -99   -99   -99   -99   -99   -99   -99 
    76   -99 0.150 0.291 0.377 0.070   -99  0.00  0.00   -99   -99   -99   -99   -99   -99   -99   -99 
   106   -99 0.150 0.291 0.377 0.017   -99  0.00  0.00   -99   -99   -99   -99   -99   -99   -99   -99 
   136   -99 0.150 0.291 0.377 0.000   -99  0.00  0.00   -99   -99   -99   -99   -99   -99   -99   -99 

*CULTIVAR
IB0055 PIONEER 850      IB0001 460.0 12.50  90.0 600.0   5.0   6.0
49.00
