*MODEL INPUT FILE            B    12     1    12   999     0
*FILES              
MODEL          CRGRO045
FILEX          ICBP8502.CHX C:\DSSAT45\CHICKPEA\                                                            
FILEA          ICBP8502.CHA C:\DSSAT45\CHICKPEA\                                                            
FILET          ICBP8502.CHT C:\DSSAT45\CHICKPEA\                                                            
SPECIES        CHGRO045.SPE C:\DSSAT45\GENOTYPE\                                                            
ECOTYPE        CHGRO045.ECO C:\DSSAT45\GENOTYPE\                                                            
CULTIVAR       CHGRO045.CUL C:\DSSAT45\GENOTYPE\                                                            
PESTS          CHGRO045.PST C:\DSSAT45\PEST\                                                                
SOILS          SOIL.SOL     C:\DSSAT45\SOIL\                                                                
WEATHER        0-24.WTH
OUTPUT        Output
*SIMULATION CONTROL
                   1     1     S 1974152  2150 N X IRRIGATION, GA_TIFTON MZCER
                   Y     Y     Y     N     N     N     N     Y     M
                   M     M     E     R     S     L     R     1     G     S     1
                   R     R     R     N     M
                   N     Y     Y     1     Y     Y     Y     Y     N     N     Y     N     N
!AUTOMATIC MANAGEM  
               1974152 1974212   40.  100.   30.   40.   10.
                 30.   50.  100. GS000 IR001  10.0 1.000
                 30.   50.   25. FE001 GS000
                100.     1   20.
                     0 1974057  100.    0.
*EXP.DETAILS        
  1ICBP8502 CH 1985 ANNIGERI LINE SOURCE IRRIGATION                        
*TREATMENTS         
 12 1 0 0 G4 IRRIGATION;D5  DISTANC
*CULTIVARS          
   CH IB0001 ANNIGERI        
*FIELDS
   GATI0002 GATI7401   0.0    0. DR000    0.  100. 00000        136. Clay
          29.63000       -82.37000     40.00               1.0  100.   1.0   0.0
*INITIAL CONDITIONS
   SG    1974152  100.    0.  1.00  1.00   0.0  1000  0.80  0.00  100.   15.
     5   -99 0.042 0.169 0.392 1.000   -99  0.00  0.00   -99   -99   -99   -99   -99   -99   -99   -99 
    15   -99 0.042 0.169 0.392 1.000   -99  0.00  0.00   -99   -99   -99   -99   -99   -99   -99   -99 
    25   -99 0.042 0.169 0.392 0.779   -99  0.00  0.00   -99   -99   -99   -99   -99   -99   -99   -99 
    33   -99 0.044 0.177 0.358 0.349   -99  0.00  0.00   -99   -99   -99   -99   -99   -99   -99   -99 
    46   -99 0.056 0.165 0.396 0.209   -99  0.00  0.00   -99   -99   -99   -99   -99   -99   -99   -99 
    61   -99 0.150 0.291 0.377 0.070   -99  0.00  0.00   -99   -99   -99   -99   -99   -99   -99   -99 
    76   -99 0.150 0.291 0.377 0.070   -99  0.00  0.00   -99   -99   -99   -99   -99   -99   -99   -99 
   106   -99 0.150 0.291 0.377 0.017   -99  0.00  0.00   -99   -99   -99   -99   -99   -99   -99   -99 
   136   -99 0.150 0.291 0.377 0.000   -99  0.00  0.00   -99   -99   -99   -99   -99   -99   -99   -99 

*PLANTING DETAILS
   1974152     -99   7.2   7.2     S     R   61.    0.   7.0  -99.  -99. -99.0 -99.0   0.0
*IRRIGATION
   1.000   30.   75.  -99. GS000 IR001  10.0
   1974063 IR001  13.0
   1985313 IR001  10.0
   1985331 IR001  10.0
   1985339 IR001  38.0
   1985361 IR001  50.0
   1986008 IR001  28.0
*FERTILIZERS        
   1985314 FE005 AP009    5.   20.    0.    0.    0.    0.   -99
*RESIDUES           
*CHEMICALS          
*TILLAGE            
*ENVIRONMENT        
*HARVEST            
*SOIL
 GAPN930001  GA_tifton  XXXXX  136.  Clay
 -99         USA               -99    -99  Fine loamy,silic.,therm. Typic Paleudults
   -99  0.14   3.0  0.23  60.0  1.00  0.95 IB001 IB001 IB001
     5   -99 0.042 0.169 0.392 1.000   -99  0.00  0.00   -99   -99   -99   -99   -99   -99   -99   -99 
    15   -99 0.042 0.169 0.392 1.000   -99  0.00  0.00   -99   -99   -99   -99   -99   -99   -99   -99 
    25   -99 0.042 0.169 0.392 0.779   -99  0.00  0.00   -99   -99   -99   -99   -99   -99   -99   -99 
    33   -99 0.044 0.177 0.358 0.349   -99  0.00  0.00   -99   -99   -99   -99   -99   -99   -99   -99 
    46   -99 0.056 0.165 0.396 0.209   -99  0.00  0.00   -99   -99   -99   -99   -99   -99   -99   -99 
    61   -99 0.150 0.291 0.377 0.070   -99  0.00  0.00   -99   -99   -99   -99   -99   -99   -99   -99 
    76   -99 0.150 0.291 0.377 0.070   -99  0.00  0.00   -99   -99   -99   -99   -99   -99   -99   -99 
   106   -99 0.150 0.291 0.377 0.017   -99  0.00  0.00   -99   -99   -99   -99   -99   -99   -99   -99 
   136   -99 0.150 0.291 0.377 0.000   -99  0.00  0.00   -99   -99   -99   -99   -99   -99   -99   -99 

*CULTIVAR
IB0055 PIONEER 850      IB0001 460.0 12.50  90.0 600.0   5.0   6.0
49.00
