*MODEL INPUT FILE            B     2     1     2   999     0
*FILES              
MODEL          CRGRO040    
FILEX          UFQU7902.SBX
FILEA          UFQU7902.SBA
FILET          UFQU7902.SBT
SPECIES        SBGRO040.SPE C:\DSSAT4\GENOTYPE\                                                             
ECOTYPE        SBGRO040.ECO C:\DSSAT4\GENOTYPE\                                                             
CULTIVAR       SBGRO040.CUL C:\DSSAT4\GENOTYPE\                                                             
PESTS          SBGRO040.PST C:\DSSAT4\PEST\                                                                 
SOILS          SOIL.SOL     C:\DSSAT4\SOIL\                                                                 
WEATHER        4-3.WTH
OUTPUT        Output
*SIMULATION CONTROL
                   1     1     S 203152  2150 N X IRRIGATION, GA_TIFTON MZCER
                   N     N     N     N     N     Y     N     N
                   M     M     E     R     S     L     R     1     G
                   R     N     N     N     M
                   N     Y     Y     1     Y     N     Y     Y     N     Y     Y     N     N
!AUTOMATIC MANAGEM  
               203152 203212   40.  100.   30.   40.   10.
                 30.   50.  100. GS000 IR001  10.0 0.750
                 30.   50.   25. FE001 GS000
                100.     1   20.
                     0 203057  100.    0.
*EXP.DETAILS        
  1UFQU7902 SB BRAGG, DEFOLIATION STUDY                                    
*TREATMENTS         
  2 1 0 0 DEFOLIATION TRT          
*CULTIVARS          
   SB IB0001 BRAGG (7)       
*FIELDS
   GATI0002 GATI301   0.0    0. DR000    0.  100. 00000        -82.370. Loam
          29.63000       -82.37000     40.00               1.0  100.   1.0   0.0
*INITIAL CONDITIONS
   SG    203152  100.    0.  1.00  1.00   0.0  1000  0.80  0.00  100.   15.
    15   -99 0.023 0.086 0.230 1.000  7.40  1.40  0.69   -99   -99   -99   -99   5.4   -99   -99   -99 
    30   -99 0.023 0.086 0.230 0.498 15.80  1.46  0.28   -99   -99   -99   -99   5.7   -99   -99   -99 
    60   -99 0.023 0.086 0.230 0.294 28.00  1.47  0.20   -99   -99   -99   -99   5.8   -99   -99   -99 
    90   -99 0.021 0.076 0.230 0.380 27.60  1.43  0.09   -99   -99   -99   -99   5.9   -99   -99   -99 
   120   -99 0.020 0.076 0.230 0.133 17.50  1.48  0.03   -99   -99   -99   -99   5.9   -99   -99   -99 
   150   -99 0.027 0.130 0.230 0.062  0.30  1.57  0.03   -99   -99   -99   -99   5.9   -99   -99   -99 
   180   -99 0.070 0.258 0.360 0.031  0.10  1.79  0.03   -99   -99   -99   -99   5.9   -99   -99   -99 

    203. 0.000   0.0   0.0
*PLANTING DETAILS
   203152     -99   7.2   7.2     S     R   61.    0.   7.0  -99.  -99. -99.0 -99.0   0.0
*IRRIGATION
   1.000    0.    0.    0. GS000 IR001   0.0
   203063 IR001  13.0
*RESIDUES           
*CHEMICALS          
*TILLAGE            
*ENVIRONMENT        
*HARVEST            
*SOIL
 GAPN930001  GA_tifton  XXXXX  -82.370.  Loam
   -99  0.18   5.0  0.50  66.0  1.00  0.92 IB001 IB001 IB001
     5   -99 0.023 0.086 0.230 1.000  7.40  1.36  0.90   -99   -99   -99   -99   5.3   -99   -99   -99 
    15   -99 0.023 0.086 0.230 1.000  7.40  1.40  0.69   -99   -99   -99   -99   5.4   -99   -99   -99 
    30   -99 0.023 0.086 0.230 0.498 15.80  1.46  0.28   -99   -99   -99   -99   5.7   -99   -99   -99 
    60   -99 0.023 0.086 0.230 0.294 28.00  1.47  0.20   -99   -99   -99   -99   5.8   -99   -99   -99 
    90   -99 0.021 0.076 0.230 0.380 27.60  1.43  0.09   -99   -99   -99   -99   5.9   -99   -99   -99 
   120   -99 0.020 0.076 0.230 0.133 17.50  1.48  0.03   -99   -99   -99   -99   5.9   -99   -99   -99 
   150   -99 0.027 0.130 0.230 0.062  0.30  1.57  0.03   -99   -99   -99   -99   5.9   -99   -99   -99 
   180   -99 0.070 0.258 0.360 0.031  0.10  1.79  0.03   -99   -99   -99   -99   5.9   -99   -99   -99 

*CULTIVAR
IB0055 PIONEER 850      IB0001 460.0 12.50  90.0 600.0   5.0   6.0
49.00
