*MODEL INPUT FILE            A     1     1     1     6     0
*FILES              
MODEL          SGCER    
FILEX          GATI0301.MZX
FILEA          GATI0301.MZA
FILET          GATI0301.MZT
SPECIES        SGCER040.SPE                                                                               
ECOTYPE        SGCER040.ECO                                                                               
CULTIVAR       SGCER040.CUL                                                                               
PESTS          SGCER040.PST                                                                               
SOILS          SOIL.SOL                                                                                   
WEATHER        2-7.WTH
OUTPUT        Output
*SIMULATION CONTROL
                   1     1     S 1957152  2150 N X IRRIGATION, GA_TIFTON MZCER
                   Y     Y     N     N     N     N     N     N
                   M     M     E     R     S     C     R     1     G
                   A     R     R     N     M
                   Y     Y     Y     1     Y     N     Y     Y     N     N     D     N     N
!AUTOMATIC MANAGEM  
               1957152 1957212   40.  100.   30.   40.   10.
                 30.   50.  100. GS000 IR001  10.0 1.000
                 30.   50.   25. FE001 GS000
                100.     1   20.
                     0 1957057  100.    0.
*EXP.DETAILS        
  1GATI0301 MZ NIT X IRR, GA_TIFTON 2N*3I                                
*TREATMENTS         
  1 1 0 0 RAINFED LOW NITROGEN     
*CULTIVARS          
   SG IB0055 PIONEER 850    
*FIELDS
   GATI0002 GATI5701   0.0    0. DR000    0.  100. 00000        203. Sandy Loam
          29.63000       -82.37000     40.00               1.0  100.   1.0   0.0
*INITIAL CONDITIONS
   SG    1957152  100.    0.  1.00  1.00   0.0  1000  0.80  0.00  100.   15.
     5   -99 0.125 0.198 0.294 1.000   -99  1.49  1.73   -99   -99   -99   -99   -99   -99   -99   -99 
    15   -99 0.125 0.198 0.294 0.874   -99  1.49  1.73   -99   -99   -99   -99   -99   -99   -99   -99 
    25   -99 0.125 0.198 0.294 0.874   -99  1.49  1.73   -99   -99   -99   -99   -99   -99   -99   -99 
    34   -99 0.117 0.226 0.323 0.351   -99  1.41  0.40   -99   -99   -99   -99   -99   -99   -99   -99 
    43   -99 0.117 0.226 0.323 0.351   -99  1.41  0.40   -99   -99   -99   -99   -99   -99   -99   -99 
    53   -99 0.138 0.250 0.332 0.310   -99  1.44  0.20   -99   -99   -99   -99   -99   -99   -99   -99 
    64   -99 0.138 0.250 0.332 0.310   -99  1.44  0.20   -99   -99   -99   -99   -99   -99   -99   -99 
   102   -99 0.167 0.281 0.331 0.302   -99  1.57  0.14   -99   -99   -99   -99   -99   -99   -99   -99 
   145   -99 0.182 0.291 0.334 0.077   -99  1.59  0.16   -99   -99   -99   -99   -99   -99   -99   -99 
   175   -99 0.162 0.272 0.320 0.036   -99  1.61  0.09   -99   -99   -99   -99   -99   -99   -99   -99 
   203   -99 0.154 0.263 0.319 0.006   -99  1.58  0.03   -99   -99   -99   -99   -99   -99   -99   -99 

*PLANTING DETAILS
   1957152     -99   7.2   7.2     S     R   61.    0.   7.0  -99.  -99. -99.0 -99.0   0.0
*IRRIGATION
   1.000   30.   75.  -99. GS000 IR001   0.0
   1957063 IR001  13.0
*FERTILIZERS        
         1 FE001 AP001   10.   27.    0.    0.    0.    0.   -99
   		30 FE001 AP001   10.   35.    0.    0.    0.    0.   -99
   		45 FE001 AP001   10.   54.    0.    0.    0.    0.   -99
*RESIDUES           
*CHEMICALS          
*TILLAGE            
*ENVIRONMENT        
*HARVEST            
*SOIL
 GAPN930001  GA_tifton  XXXXX  203.  Sandy Loam
 Quincy      USA            30.600 -86.400 Loamy,silic,hyperth Gross. Paleud(17)
   -99  0.13   9.0  0.27  84.0  1.00  0.97 IB001 IB001 IB001
     5   -99 0.125 0.198 0.294 1.000   -99  1.49  1.73   -99   -99   -99   -99   -99   -99   -99   -99 
    15   -99 0.125 0.198 0.294 0.874   -99  1.49  1.73   -99   -99   -99   -99   -99   -99   -99   -99 
    25   -99 0.125 0.198 0.294 0.874   -99  1.49  1.73   -99   -99   -99   -99   -99   -99   -99   -99 
    34   -99 0.117 0.226 0.323 0.351   -99  1.41  0.40   -99   -99   -99   -99   -99   -99   -99   -99 
    43   -99 0.117 0.226 0.323 0.351   -99  1.41  0.40   -99   -99   -99   -99   -99   -99   -99   -99 
    53   -99 0.138 0.250 0.332 0.310   -99  1.44  0.20   -99   -99   -99   -99   -99   -99   -99   -99 
    64   -99 0.138 0.250 0.332 0.310   -99  1.44  0.20   -99   -99   -99   -99   -99   -99   -99   -99 
   102   -99 0.167 0.281 0.331 0.302   -99  1.57  0.14   -99   -99   -99   -99   -99   -99   -99   -99 
   145   -99 0.182 0.291 0.334 0.077   -99  1.59  0.16   -99   -99   -99   -99   -99   -99   -99   -99 
   175   -99 0.162 0.272 0.320 0.036   -99  1.61  0.09   -99   -99   -99   -99   -99   -99   -99   -99 
   203   -99 0.154 0.263 0.319 0.006   -99  1.58  0.03   -99   -99   -99   -99   -99   -99   -99   -99 

*CULTIVAR
IB0055 PIONEER 850      IB0001 460.0 12.50  90.0 600.0   5.0   6.0
49.00
